untitled
  ChemPy            3D                             0

 24 24  0  0  1  0  0  0  0  0999 V2000
    1.0530   84.1710  109.3300 C   0  0  0  0  0  0  0  0  0  0  0  0
    0.6560   85.4250  109.8230 C   0  0  0  0  0  0  0  0  0  0  0  0
   -0.3010   85.5900  110.8510 C   0  0  0  0  0  0  0  0  0  0  0  0
   -0.8180   84.4980  111.5650 C   0  0  0  0  0  0  0  0  0  0  0  0
   -0.8260   83.2000  110.7640 C   0  0  0  0  0  0  0  0  0  0  0  0
    0.5830   82.9660  110.1720 C   0  0  0  0  0  0  0  0  0  0  0  0
    2.4850   84.1410  109.1680 O   0  0  0  0  0  0  0  0  0  0  0  0
    3.2500   83.7560  110.3370 C   0  0  0  0  0  0  0  0  0  0  0  0
    3.9390   85.0250  110.8770 C   0  0  0  0  0  0  0  0  0  0  0  0
    4.4330   84.8530  112.3230 C   0  0  0  0  0  0  0  0  0  0  0  0
    4.3900   82.8020  109.9670 C   0  0  0  0  0  0  0  0  0  0  0  0
    4.3040   82.3050  108.5150 C   0  0  0  0  0  0  0  0  0  0  0  0
    0.6400   81.7610  109.3050 N   0  0  0  0  0  0  0  0  0  0  0  0
    1.3090   80.6560  109.6290 C   0  0  0  0  0  0  0  0  0  0  0  0
    1.2560   79.5370  108.5840 C   0  0  0  0  0  0  0  0  0  0  0  0
    1.9150   80.4840  110.6970 O   0  0  0  0  0  0  0  0  0  0  0  0
    0.1500   81.8030  108.4330 H   0  0  0  0  0  0  0  0  0  0  0  0
   -1.2590   82.1200  111.6710 N   0  0  0  0  0  0  0  0  0  0  0  0
   -1.2930   81.2530  111.1730 H   0  0  0  0  0  0  0  0  0  0  0  0
   -2.1830   82.3280  112.0060 H   0  0  0  0  0  0  0  0  0  0  0  0
   -0.6280   82.0460  112.4380 H   0  0  0  0  0  0  0  0  0  0  0  0
   -0.7800   86.8570  111.1470 C   0  0  0  0  0  0  0  0  0  0  0  0
    0.0030   87.7400  111.5700 O   0  0  0  0  0  0  0  0  0  0  0  0
   -1.9940   87.1140  111.0380 O   0  0  0  0  0  0  0  0  0  0  0  0
  1  2  1  0  0  0  0
  1  6  1  0  0  0  0
  1  7  1  0  0  0  0
  2  3  1  0  0  0  0
  3  4  1  0  0  0  0
  3 22  1  0  0  0  0
  4  5  1  0  0  0  0
  5  6  1  0  0  0  0
  5 18  1  0  0  0  0
  6 13  1  0  0  0  0
  7  8  1  0  0  0  0
  8  9  1  0  0  0  0
  8 11  1  0  0  0  0
  9 10  1  0  0  0  0
 11 12  1  0  0  0  0
 13 14  1  0  0  0  0
 13 17  1  0  0  0  0
 14 15  1  0  0  0  0
 14 16  1  0  0  0  0
 18 19  1  0  0  0  0
 18 20  1  0  0  0  0
 18 21  1  0  0  0  0
 22 23  1  0  0  0  0
 22 24  1  0  0  0  0
M  END
